<?xml version="1.0" encoding="UTF-8"?>

<!-- generated on Sun May 17 15:49:45 2020 by Eclipse SUMO netedit Version 1.3.1
<configuration xmlns:xsi="http://www.w3.org/2001/XMLSchema-instance" xsi:noNamespaceSchemaLocation="http://sumo.dlr.de/xsd/netconvertConfiguration.xsd">

    <input>
        <sumo-net-file value="/Users/newfrontier2/macports/share/doc/sumo/test/merge.net.xml"/>
    </input>

    <output>
        <output-file value="/Users/newfrontier2/macports/share/doc/sumo/test/merge.net.xml"/>
    </output>

    <processing>
        <geometry.max-grade.fix value="false"/>
        <offset.disable-normalization value="true"/>
        <opposites.guess.fix-lengths value="true"/>
        <lefthand value="false"/>
    </processing>

    <junctions>
        <no-turnarounds value="true"/>
        <junctions.corner-detail value="5"/>
        <junctions.limit-turn-speed value="5.5"/>
        <rectangular-lane-cut value="false"/>
    </junctions>

    <pedestrian>
        <walkingareas value="false"/>
    </pedestrian>

</configuration>
-->

<net version="1.3" junctionCornerDetail="5" limitTurnSpeed="5.50" xmlns:xsi="http://www.w3.org/2001/XMLSchema-instance" xsi:noNamespaceSchemaLocation="http://sumo.dlr.de/xsd/net_file.xsd">

    <location netOffset="0.00,0.00" convBoundary="-18.70,13.11,97.95,92.99" origBoundary="-10000000000.00,-10000000000.00,10000000000.00,10000000000.00" projParameter="!"/>

    <edge id=":gneJ10_0" function="internal">
        <lane id=":gneJ10_0_0" index="0" speed="4.07" length="1.51" shape="73.93,13.18 74.31,13.19 74.67,13.28 74.99,13.46 75.27,13.73"/>
    </edge>
    <edge id=":gneJ11_0" function="internal">
        <lane id=":gneJ11_0_0" index="0" speed="4.27" length="1.20" shape="97.55,39.88 97.77,40.15 97.89,40.37 97.93,40.62 97.93,40.97"/>
    </edge>
    <edge id=":gneJ12_0" function="internal">
        <lane id=":gneJ12_0_0" index="0" speed="4.10" length="1.44" shape="96.81,73.39 96.76,73.75 96.63,74.08 96.43,74.37 96.16,74.62"/>
    </edge>
    <edge id=":gneJ13_0" function="internal">
        <lane id=":gneJ13_0_0" index="0" speed="30.00" length="0.90" shape="75.28,90.03 75.06,90.18 74.90,90.27 74.72,90.31 74.46,90.34"/>
    </edge>
    <edge id=":gneJ14_0" function="internal">
        <lane id=":gneJ14_0_0" index="0" speed="30.00" length="0.80" shape="42.18,92.96 41.95,92.97 41.78,92.96 41.63,92.92 41.41,92.83"/>
    </edge>
    <edge id=":gneJ15_0" function="internal">
        <lane id=":gneJ15_0_0" index="0" speed="18.69" length="10.46" shape="15.87,81.54 13.19,80.16 11.50,78.82 10.04,77.15 8.06,74.81"/>
    </edge>
    <edge id=":gneJ15_1" function="internal">
        <lane id=":gneJ15_1_0" index="0" speed="8.40" length="9.65" shape="15.87,81.54 14.51,80.51 13.45,78.74 12.68,76.25 12.20,73.02"/>
    </edge>
    <edge id=":gneJ16_0" function="internal">
        <lane id=":gneJ16_0_0" index="0" speed="4.15" length="1.35" shape="9.90,47.96 9.90,47.62 9.97,47.30 10.11,47.00 10.32,46.73"/>
    </edge>
    <edge id=":gneJ17_0" function="internal">
        <lane id=":gneJ17_0_0" index="0" speed="3.91" length="3.12" shape="-17.31,46.23 -17.80,45.49 -17.89,44.83 -17.56,44.24 -16.83,43.74"/>
    </edge>
    <edge id=":gneJ9_0" function="internal">
        <lane id=":gneJ9_0_0" index="0" speed="21.95" length="12.52" shape="29.65,20.59 32.62,18.96 35.18,17.51 37.83,16.40 41.09,15.80"/>
    </edge>
    <edge id=":gneJ9_1" function="internal">
        <lane id=":gneJ9_1_0" index="0" speed="12.14" length="12.47" shape="31.86,23.56 34.04,20.86 35.89,18.45 38.03,16.66 41.09,15.80"/>
    </edge>

    <edge id="e1" from="gneJ14" to="gneJ15" priority="-1" spreadType="center" length="100.50">
        <lane id="e1_0" index="0" speed="30.00" length="100.50" shape="41.41,92.83 15.87,81.54"/>
    </edge>
    <edge id="e2" from="gneJ15" to="gneJ16" priority="-1" spreadType="center" length="100.50">
        <lane id="e2_0" index="0" speed="30.00" length="100.50" shape="12.20,73.02 9.90,47.96"/>
    </edge>
    <edge id="e3" from="gneJ16" to="gneJ9" priority="2" spreadType="center" length="100.00">
        <lane id="e3_0" index="0" speed="30.00" length="100.00" shape="10.32,46.73 31.86,23.56"/>
    </edge>
    <edge id="e4" from="gneJ9" to="gneJ10" priority="-1" spreadType="center" length="1500.00">
        <lane id="e4_0" index="0" speed="30.00" length="1500.00" shape="41.09,15.80 73.93,13.18"/>
    </edge>
    <edge id="e5" from="gneJ10" to="gneJ11" priority="-1" spreadType="center" length="100.50">
        <lane id="e5_0" index="0" speed="30.00" length="100.50" shape="75.27,13.73 97.55,39.88"/>
    </edge>
    <edge id="e6" from="gneJ11" to="gneJ12" priority="-1" spreadType="center" length="100.50">
        <lane id="e6_0" index="0" speed="30.00" length="100.50" shape="97.93,40.97 96.81,73.39"/>
    </edge>
    <edge id="e7" from="gneJ12" to="gneJ13" priority="-1" spreadType="center" length="100.00">
        <lane id="e7_0" index="0" speed="30.00" length="100.00" shape="96.16,74.62 75.28,90.03"/>
    </edge>
    <edge id="e8" from="gneJ13" to="gneJ14" priority="-1" spreadType="center" length="1500.00">
        <lane id="e8_0" index="0" speed="30.00" length="1500.00" shape="74.46,90.34 42.18,92.96"/>
    </edge>
    <edge id="in" from="gneJ17" to="gneJ9" priority="-1" spreadType="center" length="100.00">
        <lane id="in_0" index="0" speed="13.90" length="100.00" shape="-16.83,43.74 29.65,20.59"/>
    </edge>
    <edge id="out" from="gneJ15" to="gneJ17" priority="-1" spreadType="center" length="100.00">
        <lane id="out_0" index="0" speed="13.90" length="100.00" shape="8.06,74.81 -17.31,46.23"/>
    </edge>

    <junction id="gneJ10" type="priority" x="74.74" y="13.11" incLanes="e4_0" intLanes=":gneJ10_0_0" shape="74.05,14.77 76.49,12.69 75.72,12.02 75.29,11.79 74.82,11.65 74.33,11.57 73.80,11.58">
        <request index="0" response="0" foes="0" cont="0"/>
    </junction>
    <junction id="gneJ11" type="priority" x="97.95" y="40.35" incLanes="e5_0" intLanes=":gneJ11_0_0" shape="98.77,38.84 96.33,40.92 99.53,41.03 99.51,40.14 99.44,39.83 99.31,39.54 99.09,39.23">
        <request index="0" response="0" foes="0" cont="0"/>
    </junction>
    <junction id="gneJ12" type="priority" x="96.78" y="74.16" incLanes="e6_0" intLanes=":gneJ12_0_0" shape="98.41,73.44 95.21,73.33 97.11,75.91 97.81,75.22 98.05,74.83 98.24,74.40 98.35,73.94">
        <request index="0" response="0" foes="0" cont="0"/>
    </junction>
    <junction id="gneJ13" type="priority" x="74.91" y="90.30" incLanes="e7_0" intLanes=":gneJ13_0_0" shape="76.23,91.32 74.33,88.74 74.59,91.93 75.24,91.86 75.47,91.79 75.68,91.69 75.92,91.54">
        <request index="0" response="0" foes="0" cont="0"/>
    </junction>
    <junction id="gneJ14" type="priority" x="41.78" y="92.99" incLanes="e8_0" intLanes=":gneJ14_0_0" shape="42.31,94.55 42.06,91.36 40.76,94.29 41.31,94.51 41.51,94.56 41.72,94.58 41.98,94.58">
        <request index="0" response="0" foes="0" cont="0"/>
    </junction>
    <junction id="gneJ15" type="priority" x="12.86" y="80.21" incLanes="e1_0" intLanes=":gneJ15_0_0 :gneJ15_1_0" shape="15.22,83.00 16.52,80.08 15.26,78.85 14.76,77.80 14.35,76.45 14.03,74.81 13.79,72.87 10.61,73.16 10.55,74.27 10.38,74.48 10.10,74.46 9.73,74.22 9.26,73.75 6.87,75.87 8.40,77.67 9.54,79.05 10.53,80.15 11.63,81.08 13.11,81.99">
        <request index="0" response="00" foes="00" cont="0"/>
        <request index="1" response="00" foes="00" cont="0"/>
    </junction>
    <junction id="gneJ16" type="priority" x="9.83" y="47.25" incLanes="e2_0" intLanes=":gneJ16_0_0" shape="8.30,48.11 11.49,47.82 9.15,45.64 8.62,46.38 8.45,46.78 8.34,47.20 8.29,47.64">
        <request index="0" response="0" foes="0" cont="0"/>
    </junction>
    <junction id="gneJ17" type="priority" x="-18.70" y="44.67" incLanes="out_0" intLanes=":gneJ17_0_0" shape="-18.51,47.30 -16.12,45.17 -17.54,42.31 -19.31,43.69 -19.65,44.49 -19.63,45.35 -19.25,46.29">
        <request index="0" response="0" foes="0" cont="0"/>
    </junction>
    <junction id="gneJ9" type="priority" x="38.92" y="15.97" incLanes="in_0 e3_0" intLanes=":gneJ9_0_0 :gneJ9_1_0" shape="41.22,17.39 40.96,14.20 38.23,14.55 36.26,15.07 34.70,15.79 33.20,16.70 31.40,17.82 28.93,19.16 30.36,22.02 30.69,22.47 33.04,24.65 34.56,22.75 36.48,19.68 37.50,18.58 38.98,17.80">
        <request index="0" response="10" foes="10" cont="0"/>
        <request index="1" response="00" foes="01" cont="0"/>
    </junction>

    <connection from="e1" to="out" fromLane="0" toLane="0" via=":gneJ15_0_0" dir="s" state="M"/>
    <connection from="e1" to="e2" fromLane="0" toLane="0" via=":gneJ15_1_0" dir="l" state="M"/>
    <connection from="e2" to="e3" fromLane="0" toLane="0" via=":gneJ16_0_0" dir="l" state="M"/>
    <connection from="e3" to="e4" fromLane="0" toLane="0" keepClear="0" via=":gneJ9_1_0" dir="s" state="M"/>
    <connection from="e4" to="e5" fromLane="0" toLane="0" via=":gneJ10_0_0" dir="l" state="M"/>
    <connection from="e5" to="e6" fromLane="0" toLane="0" via=":gneJ11_0_0" dir="s" state="M"/>
    <connection from="e6" to="e7" fromLane="0" toLane="0" via=":gneJ12_0_0" dir="l" state="M"/>
    <connection from="e7" to="e8" fromLane="0" toLane="0" via=":gneJ13_0_0" dir="s" state="M"/>
    <connection from="e8" to="e1" fromLane="0" toLane="0" via=":gneJ14_0_0" dir="s" state="M"/>
    <connection from="in" to="e4" fromLane="0" toLane="0" keepClear="0" via=":gneJ9_0_0" dir="s" state="m"/>
    <connection from="out" to="in" fromLane="0" toLane="0" via=":gneJ17_0_0" dir="l" state="M"/>

    <connection from=":gneJ10_0" to="e5" fromLane="0" toLane="0" dir="l" state="M"/>
    <connection from=":gneJ11_0" to="e6" fromLane="0" toLane="0" dir="s" state="M"/>
    <connection from=":gneJ12_0" to="e7" fromLane="0" toLane="0" dir="l" state="M"/>
    <connection from=":gneJ13_0" to="e8" fromLane="0" toLane="0" dir="s" state="M"/>
    <connection from=":gneJ14_0" to="e1" fromLane="0" toLane="0" dir="s" state="M"/>
    <connection from=":gneJ15_0" to="out" fromLane="0" toLane="0" dir="s" state="M"/>
    <connection from=":gneJ15_1" to="e2" fromLane="0" toLane="0" dir="l" state="M"/>
    <connection from=":gneJ16_0" to="e3" fromLane="0" toLane="0" dir="l" state="M"/>
    <connection from=":gneJ17_0" to="in" fromLane="0" toLane="0" dir="l" state="M"/>
    <connection from=":gneJ9_0" to="e4" fromLane="0" toLane="0" dir="s" state="M"/>
    <connection from=":gneJ9_1" to="e4" fromLane="0" toLane="0" dir="s" state="M"/>

</net>
