<?xml version="1.0" encoding="UTF-8"?>

<!-- generated on Tue Jan 26 16:56:57 2021 by Eclipse SUMO netedit Version 1.6.0
<configuration xmlns:xsi="http://www.w3.org/2001/XMLSchema-instance" xsi:noNamespaceSchemaLocation="http://sumo.dlr.de/xsd/netconvertConfiguration.xsd">

    <input>
        <sumo-net-file value="/Users/newfrontier2/Desktop/School/CSCI690/PSO%20Paper/test/Co-PSO/lateral_merge.net.xml"/>
    </input>

    <output>
        <output-file value="/Users/newfrontier2/Desktop/School/CSCI690/PSO%20Paper/test/Co-PSO/lateral_merge.net.xml"/>
    </output>

    <processing>
        <geometry.min-radius.fix.railways value="false"/>
        <geometry.max-grade.fix value="false"/>
        <offset.disable-normalization value="true"/>
        <lefthand value="false"/>
    </processing>

    <junctions>
        <no-turnarounds value="true"/>
        <junctions.corner-detail value="5"/>
        <junctions.limit-turn-speed value="5.5"/>
        <rectangular-lane-cut value="false"/>
    </junctions>

    <pedestrian>
        <walkingareas value="false"/>
    </pedestrian>

    <report>
        <aggregate-warnings value="5"/>
    </report>

</configuration>
-->

<net version="1.6" junctionCornerDetail="5" limitTurnSpeed="5.50" xmlns:xsi="http://www.w3.org/2001/XMLSchema-instance" xsi:noNamespaceSchemaLocation="http://sumo.dlr.de/xsd/net_file.xsd">

    <location netOffset="0.00,0.00" convBoundary="-963.55,-243.70,-187.41,131.03" origBoundary="-10000000000.00,-10000000000.00,10000000000.00,10000000000.00" projParameter="!"/>

    <edge id=":j1_0" function="internal">
        <lane id=":j1_0_0" index="0" speed="22.00" length="13.02" shape="-620.05,-209.87 -616.86,-209.37 -614.16,-209.13 -611.16,-209.02 -607.08,-208.92"/>
    </edge>
    <edge id=":j1_1" function="internal">
        <lane id=":j1_1_0" index="0" speed="30.00" length="8.11" shape="-615.24,-205.00 -607.16,-205.72"/>
    </edge>
    <edge id=":j10_0" function="internal">
        <lane id=":j10_0_0" index="0" speed="30.00" length="3.30" shape="-697.79,93.27 -698.71,92.95 -699.30,92.64 -699.88,92.29 -700.74,91.82"/>
    </edge>
    <edge id=":j11_0" function="internal">
        <lane id=":j11_0_0" index="0" speed="22.00" length="9.16" shape="-803.06,40.66 -811.52,37.15"/>
    </edge>
    <edge id=":j11_1" function="internal">
        <lane id=":j11_1_0" index="0" speed="16.50" length="9.17" shape="-803.06,40.66 -805.33,39.28 -806.60,37.94 -807.64,36.31 -809.19,34.05"/>
    </edge>
    <edge id=":j12_0" function="internal">
        <lane id=":j12_0_0" index="0" speed="4.15" length="1.34" shape="-867.38,-41.38 -867.56,-41.67 -867.67,-41.98 -867.71,-42.31 -867.68,-42.65"/>
    </edge>
    <edge id=":j13_0" function="internal">
        <lane id=":j13_0_0" index="0" speed="4.33" length="1.13" shape="-852.66,-124.73 -852.60,-125.05 -852.51,-125.27 -852.36,-125.45 -852.11,-125.67"/>
    </edge>
    <edge id=":j14_0" function="internal">
        <lane id=":j14_0_0" index="0" speed="30.00" length="0.71" shape="-790.84,-176.53 -790.68,-176.66 -790.56,-176.74 -790.42,-176.79 -790.22,-176.85"/>
    </edge>
    <edge id=":j15_0" function="internal">
        <lane id=":j15_0_0" index="0" speed="30.00" length="3.39" shape="-690.24,-202.69 -689.28,-202.99 -688.63,-203.23 -687.97,-203.41 -686.97,-203.49"/>
    </edge>
    <edge id=":j2_0" function="internal">
        <lane id=":j2_0_0" index="0" speed="30.00" length="8.33" shape="-322.51,-198.56 -320.04,-198.48 -318.35,-198.34 -316.69,-198.03 -314.28,-197.46"/>
    </edge>
    <edge id=":j3_0" function="internal">
        <lane id=":j3_0_0" index="0" speed="30.00" length="0.65" shape="-272.72,-187.25 -272.53,-187.21 -272.41,-187.16 -272.29,-187.09 -272.14,-186.98"/>
    </edge>
    <edge id=":j4_0" function="internal">
        <lane id=":j4_0_0" index="0" speed="30.00" length="0.96" shape="-210.87,-140.74 -210.65,-140.56 -210.51,-140.42 -210.42,-140.25 -210.32,-139.98"/>
    </edge>
    <edge id=":j5_0" function="internal">
        <lane id=":j5_0_0" index="0" speed="4.19" length="1.26" shape="-185.89,-69.48 -185.82,-69.17 -185.80,-68.86 -185.85,-68.56 -185.97,-68.26"/>
    </edge>
    <edge id=":j6_0" function="internal">
        <lane id=":j6_0_0" index="0" speed="30.00" length="3.41" shape="-220.80,3.42 -221.30,4.29 -221.74,4.82 -222.26,5.30 -222.95,6.05"/>
    </edge>
    <edge id=":j7_0" function="internal">
        <lane id=":j7_0_0" index="0" speed="30.00" length="0.87" shape="-282.29,76.58 -282.45,76.77 -282.59,76.89 -282.75,76.97 -282.99,77.06"/>
    </edge>
    <edge id=":j8_0" function="internal">
        <lane id=":j8_0_0" index="0" speed="30.00" length="3.45" shape="-414.24,122.32 -415.19,122.71 -415.84,123.02 -416.50,123.25 -417.50,123.39"/>
    </edge>
    <edge id=":j9_0" function="internal">
        <lane id=":j9_0_0" index="0" speed="15.24" length="3.59" shape="-560.15,132.44 -561.22,132.57 -561.95,132.73 -562.68,132.77 -563.70,132.57"/>
    </edge>
    <edge id=":mj2_0" function="internal">
        <lane id=":mj2_0_0" index="0" speed="14.00" length="3.53" shape="-897.81,2.60 -898.81,2.27 -899.52,2.09 -900.18,1.82 -901.02,1.23"/>
    </edge>
    <edge id=":mj3_0" function="internal">
        <lane id=":mj3_0_0" index="0" speed="4.14" length="1.36" shape="-962.67,-50.05 -962.92,-50.30 -963.10,-50.58 -963.21,-50.89 -963.25,-51.24"/>
    </edge>
    <edge id=":mj4_0" function="internal">
        <lane id=":mj4_0_0" index="0" speed="14.00" length="0.55" shape="-965.15,-125.93 -965.15,-126.09 -965.14,-126.20 -965.12,-126.31 -965.07,-126.47"/>
    </edge>
    <edge id=":mj5_0" function="internal">
        <lane id=":mj5_0_0" index="0" speed="4.31" length="1.15" shape="-942.28,-196.09 -942.17,-196.41 -942.05,-196.61 -941.87,-196.77 -941.59,-196.96"/>
    </edge>
    <edge id=":mj6_0" function="internal">
        <lane id=":mj6_0_0" index="0" speed="4.45" length="1.01" shape="-862.47,-245.07 -862.21,-245.22 -862.02,-245.29 -861.81,-245.31 -861.52,-245.30"/>
    </edge>
    <edge id=":mj7_0" function="internal">
        <lane id=":mj7_0_0" index="0" speed="14.00" length="3.16" shape="-787.46,-239.60 -786.53,-239.50 -785.89,-239.38 -785.27,-239.24 -784.35,-239.05"/>
    </edge>

    <edge id="e1" from="j1" to="j2" priority="-1" length="300.00">
        <lane id="e1_0" index="0" speed="30.00" length="300.00" acceleration="1" shape="-607.08,-208.92 -322.43,-201.76"/>
        <lane id="e1_1" index="1" speed="30.00" length="300.00" shape="-607.16,-205.72 -322.51,-198.56"/>
    </edge>
    <edge id="e10" from="j10" to="j11" priority="-1" length="250.00">
        <lane id="e10_0" index="0" speed="30.00" length="250.00" shape="-700.74,91.82 -803.06,40.66"/>
    </edge>
    <edge id="e11" from="j11" to="j12" priority="-1" length="250.00">
        <lane id="e11_0" index="0" speed="30.00" length="250.00" shape="-809.19,34.05 -867.38,-41.38"/>
    </edge>
    <edge id="e12" from="j12" to="j13" priority="-1" length="250.00">
        <lane id="e12_0" index="0" speed="30.00" length="250.00" shape="-867.68,-42.65 -852.66,-124.73"/>
    </edge>
    <edge id="e13" from="j13" to="j14" priority="-1" length="250.00">
        <lane id="e13_0" index="0" speed="30.00" length="250.00" shape="-852.11,-125.67 -790.84,-176.53"/>
    </edge>
    <edge id="e14" from="j14" to="j15" priority="-1" length="250.00">
        <lane id="e14_0" index="0" speed="30.00" length="250.00" shape="-790.22,-176.85 -690.24,-202.69"/>
    </edge>
    <edge id="e15" from="j15" to="j1" priority="2" length="250.00">
        <lane id="e15_0" index="0" speed="30.00" length="250.00" shape="-686.97,-203.49 -615.24,-205.00"/>
    </edge>
    <edge id="e2" from="j2" to="j3" priority="-1" length="250.00">
        <lane id="e2_0" index="0" speed="30.00" length="250.00" shape="-314.28,-197.46 -272.72,-187.25"/>
    </edge>
    <edge id="e3" from="j3" to="j4" priority="-1" length="250.00">
        <lane id="e3_0" index="0" speed="30.00" length="250.00" shape="-272.14,-186.98 -210.87,-140.74"/>
    </edge>
    <edge id="e4" from="j4" to="j5" priority="-1" length="250.00">
        <lane id="e4_0" index="0" speed="30.00" length="250.00" shape="-210.32,-139.98 -185.89,-69.48"/>
    </edge>
    <edge id="e5" from="j5" to="j6" priority="-1" length="250.00">
        <lane id="e5_0" index="0" speed="30.00" length="250.00" shape="-185.97,-68.26 -220.80,3.42"/>
    </edge>
    <edge id="e6" from="j6" to="j7" priority="-1" length="250.00">
        <lane id="e6_0" index="0" speed="30.00" length="250.00" shape="-222.95,6.05 -282.29,76.58"/>
    </edge>
    <edge id="e7" from="j7" to="j8" priority="-1" length="250.00">
        <lane id="e7_0" index="0" speed="30.00" length="250.00" shape="-282.99,77.06 -414.24,122.32"/>
    </edge>
    <edge id="e8" from="j8" to="j9" priority="-1" length="250.00">
        <lane id="e8_0" index="0" speed="30.00" length="250.00" shape="-417.50,123.39 -560.15,132.44"/>
    </edge>
    <edge id="e9" from="j9" to="j10" priority="-1" length="250.00">
        <lane id="e9_0" index="0" speed="30.00" length="250.00" shape="-563.70,132.57 -697.79,93.27"/>
    </edge>
    <edge id="m1" from="j11" to="mj2" priority="-1" length="180.00">
        <lane id="m1_0" index="0" speed="14.00" length="180.00" shape="-811.52,37.15 -897.81,2.60"/>
    </edge>
    <edge id="m2" from="mj2" to="mj3" priority="-1" length="180.00">
        <lane id="m2_0" index="0" speed="14.00" length="180.00" shape="-901.02,1.23 -962.67,-50.05"/>
    </edge>
    <edge id="m3" from="mj3" to="mj4" priority="-1" length="180.00">
        <lane id="m3_0" index="0" speed="14.00" length="180.00" shape="-963.25,-51.24 -965.15,-125.93"/>
    </edge>
    <edge id="m4" from="mj4" to="mj5" priority="-1" length="180.00">
        <lane id="m4_0" index="0" speed="14.00" length="180.00" shape="-965.07,-126.47 -942.28,-196.09"/>
    </edge>
    <edge id="m5" from="mj5" to="mj6" priority="-1" length="180.00">
        <lane id="m5_0" index="0" speed="14.00" length="180.00" shape="-941.59,-196.96 -862.47,-245.07"/>
    </edge>
    <edge id="m6" from="mj6" to="mj7" priority="-1" length="180.00">
        <lane id="m6_0" index="0" speed="14.00" length="180.00" shape="-861.52,-245.30 -787.46,-239.60"/>
    </edge>
    <edge id="m7" from="mj7" to="j1" priority="-1" length="170.00">
        <lane id="m7_0" index="0" speed="14.00" length="170.00" shape="-784.35,-239.05 -620.05,-209.87"/>
    </edge>

    <junction id="j1" type="priority" x="-595.16" y="-203.82" incLanes="m7_0 e15_0" intLanes=":j1_0_0 :j1_1_0" shape="-607.20,-204.12 -607.04,-210.52 -609.76,-210.57 -611.78,-210.58 -613.44,-210.62 -615.10,-210.74 -617.09,-211.00 -619.77,-211.44 -620.33,-208.29 -617.67,-207.80 -615.74,-207.39 -614.54,-207.06 -614.06,-206.82 -614.30,-206.67 -615.27,-206.60 -615.20,-203.40">
        <request index="0" response="00" foes="00" cont="0"/>
        <request index="1" response="00" foes="00" cont="0"/>
    </junction>
    <junction id="j10" type="priority" x="-697.34" y="91.73" incLanes="e9_0" intLanes=":j10_0_0" shape="-698.24,94.80 -697.34,91.73 -698.38,91.34 -698.72,91.15 -699.05,90.94 -699.46,90.69 -700.02,90.39 -701.45,93.25 -700.29,93.90 -699.89,94.14 -699.48,94.35 -698.96,94.57">
        <request index="0" response="0" foes="0" cont="0"/>
    </junction>
    <junction id="j11" type="priority" x="-803.69" y="38.56" incLanes="e10_0" intLanes=":j11_0_0 :j11_1_0" shape="-803.78,42.09 -802.35,39.23 -804.88,37.54 -805.58,36.69 -806.17,35.72 -806.88,34.54 -807.92,33.08 -810.45,35.03 -810.93,35.66 -812.12,38.63">
        <request index="0" response="00" foes="00" cont="0"/>
        <request index="1" response="00" foes="00" cont="0"/>
    </junction>
    <junction id="j12" type="priority" x="-866.11" y="-42.36" incLanes="e11_0" intLanes=":j12_0_0" shape="-868.64,-40.41 -866.11,-42.36 -869.26,-42.94 -869.30,-42.03 -869.23,-41.60 -869.10,-41.19 -868.90,-40.79">
        <request index="0" response="0" foes="0" cont="0"/>
    </junction>
    <junction id="j13" type="priority" x="-851.09" y="-124.44" incLanes="e12_0" intLanes=":j13_0_0" shape="-851.09,-124.44 -853.13,-126.90 -853.75,-126.34 -853.93,-126.10 -854.05,-125.83 -854.15,-125.48 -854.24,-125.02">
        <request index="0" response="0" foes="0" cont="0"/>
    </junction>
    <junction id="j14" type="priority" x="-789.82" y="-175.30" incLanes="e13_0" intLanes=":j14_0_0" shape="-789.82,-175.30 -790.62,-178.40 -791.12,-178.25 -791.29,-178.18 -791.45,-178.09 -791.63,-177.95 -791.86,-177.76">
        <request index="0" response="0" foes="0" cont="0"/>
    </junction>
    <junction id="j15" type="priority" x="-686.94" y="-201.89" incLanes="e14_0" intLanes=":j15_0_0" shape="-686.94,-201.89 -687.01,-205.09 -688.38,-204.95 -688.85,-204.82 -689.31,-204.66 -689.88,-204.46 -690.65,-204.24 -689.84,-201.14 -688.78,-201.49 -688.41,-201.64 -688.04,-201.76 -687.58,-201.85">
        <request index="0" response="0" foes="0" cont="0"/>
    </junction>
    <junction id="j2" type="priority" x="-318.55" y="-196.86" incLanes="e1_0 e1_1" intLanes=":j2_0_0" shape="-314.67,-195.91 -313.90,-199.01 -315.81,-199.72 -317.10,-200.62 -318.09,-201.57 -319.10,-202.43 -320.43,-203.07 -322.39,-203.36 -322.55,-196.96 -319.60,-196.85 -318.56,-196.75 -317.54,-196.58 -316.31,-196.31">
        <request index="0" response="0" foes="0" cont="0"/>
    </junction>
    <junction id="j3" type="priority" x="-273.10" y="-185.70" incLanes="e2_0" intLanes=":j3_0_0" shape="-273.10,-185.70 -271.17,-188.25 -271.56,-188.54 -271.71,-188.62 -271.87,-188.68 -272.07,-188.74 -272.34,-188.81">
        <request index="0" response="0" foes="0" cont="0"/>
    </junction>
    <junction id="j4" type="priority" x="-211.83" y="-139.46" incLanes="e3_0" intLanes=":j4_0_0" shape="-211.83,-139.46 -208.81,-140.51 -209.06,-141.16 -209.19,-141.38 -209.36,-141.57 -209.58,-141.77 -209.90,-142.01">
        <request index="0" response="0" foes="0" cont="0"/>
    </junction>
    <junction id="j5" type="priority" x="-187.41" y="-68.96" incLanes="e4_0" intLanes=":j5_0_0" shape="-184.38,-70.00 -187.41,-68.96 -184.53,-67.56 -184.25,-68.36 -184.20,-68.77 -184.21,-69.18 -184.27,-69.59">
        <request index="0" response="0" foes="0" cont="0"/>
    </junction>
    <junction id="j6" type="priority" x="-222.24" y="2.72" incLanes="e5_0" intLanes=":j6_0_0" shape="-219.36,4.12 -222.24,2.72 -222.82,3.66 -223.09,3.94 -223.39,4.21 -223.74,4.54 -224.17,5.02 -221.72,7.08 -220.75,6.04 -220.40,5.69 -220.07,5.32 -219.74,4.83">
        <request index="0" response="0" foes="0" cont="0"/>
    </junction>
    <junction id="j7" type="priority" x="-283.51" y="75.55" incLanes="e6_0" intLanes=":j7_0_0" shape="-281.06,77.61 -283.51,75.55 -282.47,78.58 -281.87,78.35 -281.67,78.23 -281.49,78.09 -281.30,77.89">
        <request index="0" response="0" foes="0" cont="0"/>
    </junction>
    <junction id="j8" type="priority" x="-417.60" y="121.79" incLanes="e7_0" intLanes=":j8_0_0" shape="-413.72,123.84 -414.76,120.81 -415.80,121.26 -416.15,121.45 -416.51,121.60 -416.97,121.72 -417.60,121.79 -417.40,124.98 -415.99,124.77 -415.52,124.60 -415.06,124.39 -414.49,124.13">
        <request index="0" response="0" foes="0" cont="0"/>
    </junction>
    <junction id="j9" type="priority" x="-563.25" y="131.03" incLanes="e8_0" intLanes=":j9_0_0" shape="-560.05,134.03 -560.26,130.84 -561.38,131.03 -561.77,131.13 -562.17,131.19 -562.63,131.17 -563.25,131.03 -564.15,134.10 -562.67,134.37 -562.13,134.33 -560.93,134.12">
        <request index="0" response="0" foes="0" cont="0"/>
    </junction>
    <junction id="mj2" type="priority" x="-900.00" y="0.00" incLanes="m1_0" intLanes=":mj2_0_0" shape="-898.40,4.09 -897.21,1.12 -898.30,0.79 -898.70,0.71 -899.07,0.59 -899.49,0.38 -900.00,-0.00 -902.05,2.46 -900.83,3.28 -900.34,3.47 -899.83,3.62 -899.21,3.80">
        <request index="0" response="0" foes="0" cont="0"/>
    </junction>
    <junction id="mj3" type="priority" x="-961.65" y="-51.28" incLanes="m2_0" intLanes=":mj3_0_0" shape="-963.70,-48.82 -961.65,-51.28 -964.85,-51.20 -964.70,-50.29 -964.54,-49.88 -964.32,-49.50 -964.04,-49.14">
        <request index="0" response="0" foes="0" cont="0"/>
    </junction>
    <junction id="mj4" type="priority" x="-963.55" y="-125.97" incLanes="m3_0" intLanes=":mj4_0_0" shape="-966.75,-125.89 -963.55,-125.97 -966.59,-126.97 -966.71,-126.58 -966.74,-126.44 -966.75,-126.29 -966.75,-126.12">
        <request index="0" response="0" foes="0" cont="0"/>
    </junction>
    <junction id="mj5" type="priority" x="-940.76" y="-195.59" incLanes="m4_0" intLanes=":mj5_0_0" shape="-940.76,-195.59 -942.42,-198.32 -943.12,-197.85 -943.34,-197.63 -943.50,-197.38 -943.65,-197.04 -943.80,-196.59">
        <request index="0" response="0" foes="0" cont="0"/>
    </junction>
    <junction id="mj6" type="priority" x="-861.64" y="-243.70" incLanes="m5_0" intLanes=":mj6_0_0" shape="-861.64,-243.70 -861.39,-246.89 -862.14,-246.92 -862.40,-246.88 -862.65,-246.80 -862.94,-246.65 -863.30,-246.43">
        <request index="0" response="0" foes="0" cont="0"/>
    </junction>
    <junction id="mj7" type="priority" x="-787.58" y="-238.00" incLanes="m6_0" intLanes=":mj7_0_0" shape="-784.63,-237.48 -784.07,-240.63 -785.27,-240.87 -785.69,-240.97 -786.12,-241.05 -786.63,-241.12 -787.33,-241.19 -787.58,-238.00 -786.48,-237.87 -786.10,-237.79 -785.72,-237.70 -785.25,-237.60">
        <request index="0" response="0" foes="0" cont="0"/>
    </junction>

    <connection from="e1" to="e2" fromLane="1" toLane="0" via=":j2_0_0" dir="s" state="M"/>
    <connection from="e10" to="m1" fromLane="0" toLane="0" via=":j11_0_0" dir="s" state="M"/>
    <connection from="e10" to="e11" fromLane="0" toLane="0" via=":j11_1_0" dir="L" state="M"/>
    <connection from="e11" to="e12" fromLane="0" toLane="0" via=":j12_0_0" dir="l" state="M"/>
    <connection from="e12" to="e13" fromLane="0" toLane="0" via=":j13_0_0" dir="s" state="M"/>
    <connection from="e13" to="e14" fromLane="0" toLane="0" via=":j14_0_0" dir="s" state="M"/>
    <connection from="e14" to="e15" fromLane="0" toLane="0" via=":j15_0_0" dir="s" state="M"/>
    <connection from="e15" to="e1" fromLane="0" toLane="1" via=":j1_1_0" dir="s" state="M"/>
    <connection from="e2" to="e3" fromLane="0" toLane="0" via=":j3_0_0" dir="s" state="M"/>
    <connection from="e3" to="e4" fromLane="0" toLane="0" via=":j4_0_0" dir="s" state="M"/>
    <connection from="e4" to="e5" fromLane="0" toLane="0" via=":j5_0_0" dir="l" state="M"/>
    <connection from="e5" to="e6" fromLane="0" toLane="0" via=":j6_0_0" dir="s" state="M"/>
    <connection from="e6" to="e7" fromLane="0" toLane="0" via=":j7_0_0" dir="s" state="M"/>
    <connection from="e7" to="e8" fromLane="0" toLane="0" via=":j8_0_0" dir="s" state="M"/>
    <connection from="e8" to="e9" fromLane="0" toLane="0" via=":j9_0_0" dir="s" state="M"/>
    <connection from="e9" to="e10" fromLane="0" toLane="0" via=":j10_0_0" dir="s" state="M"/>
    <connection from="m1" to="m2" fromLane="0" toLane="0" via=":mj2_0_0" dir="s" state="M"/>
    <connection from="m2" to="m3" fromLane="0" toLane="0" via=":mj3_0_0" dir="l" state="M"/>
    <connection from="m3" to="m4" fromLane="0" toLane="0" via=":mj4_0_0" dir="s" state="M"/>
    <connection from="m4" to="m5" fromLane="0" toLane="0" via=":mj5_0_0" dir="s" state="M"/>
    <connection from="m5" to="m6" fromLane="0" toLane="0" via=":mj6_0_0" dir="s" state="M"/>
    <connection from="m6" to="m7" fromLane="0" toLane="0" via=":mj7_0_0" dir="s" state="M"/>
    <connection from="m7" to="e1" fromLane="0" toLane="0" via=":j1_0_0" dir="s" state="M"/>

    <connection from=":j1_0" to="e1" fromLane="0" toLane="0" dir="s" state="M"/>
    <connection from=":j1_1" to="e1" fromLane="0" toLane="1" dir="s" state="M"/>
    <connection from=":j10_0" to="e10" fromLane="0" toLane="0" dir="s" state="M"/>
    <connection from=":j11_0" to="m1" fromLane="0" toLane="0" dir="s" state="M"/>
    <connection from=":j11_1" to="e11" fromLane="0" toLane="0" dir="L" state="M"/>
    <connection from=":j12_0" to="e12" fromLane="0" toLane="0" dir="l" state="M"/>
    <connection from=":j13_0" to="e13" fromLane="0" toLane="0" dir="s" state="M"/>
    <connection from=":j14_0" to="e14" fromLane="0" toLane="0" dir="s" state="M"/>
    <connection from=":j15_0" to="e15" fromLane="0" toLane="0" dir="s" state="M"/>
    <connection from=":j2_0" to="e2" fromLane="0" toLane="0" dir="s" state="M"/>
    <connection from=":j3_0" to="e3" fromLane="0" toLane="0" dir="s" state="M"/>
    <connection from=":j4_0" to="e4" fromLane="0" toLane="0" dir="s" state="M"/>
    <connection from=":j5_0" to="e5" fromLane="0" toLane="0" dir="l" state="M"/>
    <connection from=":j6_0" to="e6" fromLane="0" toLane="0" dir="s" state="M"/>
    <connection from=":j7_0" to="e7" fromLane="0" toLane="0" dir="s" state="M"/>
    <connection from=":j8_0" to="e8" fromLane="0" toLane="0" dir="s" state="M"/>
    <connection from=":j9_0" to="e9" fromLane="0" toLane="0" dir="s" state="M"/>
    <connection from=":mj2_0" to="m2" fromLane="0" toLane="0" dir="s" state="M"/>
    <connection from=":mj3_0" to="m3" fromLane="0" toLane="0" dir="l" state="M"/>
    <connection from=":mj4_0" to="m4" fromLane="0" toLane="0" dir="s" state="M"/>
    <connection from=":mj5_0" to="m5" fromLane="0" toLane="0" dir="s" state="M"/>
    <connection from=":mj6_0" to="m6" fromLane="0" toLane="0" dir="s" state="M"/>
    <connection from=":mj7_0" to="m7" fromLane="0" toLane="0" dir="s" state="M"/>

</net>
